<configuration>
 <input>
 <net-file value="cross.net.xml"/>
 <route-files value="cross.rou.xml"/>
 </input>
</configuration>