<routes>
 <routeDistribution id="routedist1">
        <route id="route0" color="green" edges="1i 1o" probability="0.4"/>
	<route id="route1" color="orange" edges="1i 2o" probability="0.1"/>
	<route id="route2" color="blue" edges="1i 4o" probability="0.1"/>
	<route id="route3" color="yellow" edges="3i 4o" probability="0.2"/>
	<route id="route3b" color="yellow" edges="3i 2o" probability="0.2"/>
	<route id="route4" color="gray" edges="4i 3o" probability="0.3"/>
	<route id="route5" color="yellow" edges="2i 3o" probability="0.3"/>
	<route id="route6" color="white" edges="2i 4o" probability="0.3"/>

 </routeDistribution>

<flow id="flow1" begin="0" end="1000" number="300" route="routedist1"/>
</routes>
