<configuration>
<input>
 <node-files value="cross.nod.xml"/>
 <edge-files value="cross.edg.xml"/>
 <connection-files value="cross.con.xml"/>
</input>
<output>
    <output-file value="cross.net.xml"/>
</output>
</configuration>