<routes>
 <routeDistribution id="routedist1">
        <route id="route0" color="green" edges="1i 1o" probability="0.1"/>
	<route id="route1" color="orange" edges="1i 2o" probability="0.1"/>
	<route id="route2" color="yellow" edges="2i 4o" probability="0.1"/>
	<route id="route3" color="gray" edges="2i 1o" probability="0.1"/>
	<route id="route4" color="yellow" edges="3i 4o" probability="0.15"/>
	<route id="route5" color="white" edges="4i 3o" probability="0.15"/>

 </routeDistribution>

<flow id="flow1" begin="0" end="15000" probability="0.1" route="routedist1"/>
</routes>
